8

C         -1.14949       -2.76487        1.16783
C          0.08052       -1.92157        0.92158
O         -0.25274       -0.65220        0.55276
O          1.23443       -2.28889        1.02891
H          0.60321       -0.18807        0.42018
H         -0.84763       -3.78997        1.44207
H         -1.78667       -2.78447        0.26130
H         -1.75829       -2.31957        1.98022
